Version 4
SHEET 1 880 680
WIRE 0 208 0 128
WIRE 560 208 560 128
WIRE 560 208 0 208
SYMBOL 74HCT\\74hct04 48 64 R0
SYMATTR InstName U1
SYMBOL 74HCT\\74hct04 160 64 R0
SYMATTR InstName U2
SYMBOL 74HCT\\74hct04 272 64 R0
SYMATTR InstName U3
SYMBOL 74HCT\\74hct04 384 64 R0
SYMATTR InstName U4
SYMBOL 74HCT\\74hct04 496 64 R0
SYMATTR InstName U5
TEXT 152 248 Left 2 !.tran 0 0.0000001 0 100
TEXT -8 248 Left 2 !.lib 74hct.lib
