Version 4
SHEET 1 880 680
WIRE 256 80 144 80
WIRE 144 144 128 144
WIRE 64 160 64 80
WIRE 128 160 128 144
WIRE 128 160 64 160
WIRE 256 160 256 80
WIRE 352 160 256 160
WIRE 64 176 64 160
WIRE 128 176 128 160
WIRE 144 176 128 176
WIRE 64 256 64 240
FLAG 64 256 0
SYMBOL 74HCT\\74hct132 192 96 R0
SYMATTR InstName U1
SYMBOL cap 48 176 R0
SYMATTR InstName C1
SYMATTR Value 10nF
SYMBOL res 160 64 R90
WINDOW 0 0 56 VBottom 2
WINDOW 3 32 56 VTop 2
SYMATTR InstName R1
SYMATTR Value 2.2K
TEXT 152 232 Left 2 !.lib 74hct.lib
TEXT 44 280 Left 2 !.tran 0 0.00005 0 1000
